
Circuit: * spice netlister for gnetlist

Note: No ".plot", ".print", or ".fourier" lines; no simulations run
